feeders/secondary/IEEE13Lines.dss
! IEEE 13-Bus Line Definitions and Line Codes

! Line Codes
New Linecode.601 nphases=3 rmatrix=[0.3465 | 0.1560 0.3375 | 0.1580 0.1535 0.3414] xmatrix=[1.0179 | 0.5017 1.0478 | 0.4236 0.3849 1.0348] units=kft
New Linecode.602 nphases=3 rmatrix=[0.7526 | 0.1580 0.7475 | 0.1560 0.1535 0.7436] xmatrix=[1.1814 | 0.4236 1.1989 | 0.5017 0.3849 1.2112] units=kft
New Linecode.603 nphases=2 rmatrix=[1.3238 | 0.2066 1.3294] xmatrix=[1.3569 | 0.4591 1.3471] units=kft
New Linecode.604 nphases=1 rmatrix=[1.3292] xmatrix=[1.3475] units=kft
New Linecode.605 nphases=1 rmatrix=[1.3292] xmatrix=[1.3475] units=kft
New Linecode.606 nphases=3 rmatrix=[0.798 | 0.319 0.789 | 0.285 0.319 0.798] xmatrix=[0.446 | 0.264 0.404 | 0.285 0.264 0.446] units=kft
New Linecode.607 nphases=1 rmatrix=[1.342] xmatrix=[0.518] units=kft

! Lines
New Line.650632 phases=3 Bus1=650.1.2.3 Bus2=RG60.1.2.3 LineCode=601 Length=2.000 units=kft
New Line.632645 phases=3 Bus1=RG60.1.2.3 Bus2=645.1.2.3 LineCode=603 Length=0.500 units=kft
New Line.645646 phases=2 Bus1=645.2.3 Bus2=646.2.3 LineCode=603 Length=0.300 units=kft
New Line.632633 phases=3 Bus1=RG60.1.2.3 Bus2=633.1.2.3 LineCode=602 Length=0.500 units=kft
New Line.633634 phases=3 Bus1=633.1.2.3 Bus2=634.1.2.3 LineCode=601 Length=0.160 units=kft
New Line.632671 phases=3 Bus1=RG60.1.2.3 Bus2=671.1.2.3 LineCode=601 Length=2.000 units=kft
New Line.671680 phases=3 Bus1=671.1.2.3 Bus2=680.1.2.3 LineCode=601 Length=1.000 units=kft
New Line.671684 phases=3 Bus1=671.1.2.3 Bus2=684.1.2.3 LineCode=604 Length=0.300 units=kft
New Line.684611 phases=1 Bus1=684.3 Bus2=611.3 LineCode=605 Length=0.300 units=kft
New Line.684652 phases=1 Bus1=684.1 Bus2=652.1 LineCode=607 Length=0.800 units=kft
New Line.671692 phases=3 Bus1=671.1.2.3 Bus2=692.1.2.3 LineCode=606 Length=0.001 units=kft Switch=y
New Line.692675 phases=3 Bus1=692.1.2.3 Bus2=675.1.2.3 LineCode=606 Length=0.500 units=kft
